LTspice 26.0.1 for Windows
Circuit: C:\Users\Vikyath J\Downloads\vlsi\2STAGE-MILLER-OPAMP\Draft1.net
Start Time: Tue Mar  3 22:54:13 2026
solver = Normal
Maximum thread count: 6
tnom = 27
temp = 27
method = trap
Direct Newton iteration succeeded in finding operating point.
Total elapsed time: 0.243 seconds.

Files loaded:
C:\Users\Vikyath J\Downloads\vlsi\2STAGE-MILLER-OPAMP\Draft1.net
C:\Users\Vikyath J\AppData\Local\LTspice\lib\cmp\standard.dio
C:\Users\Vikyath J\AppData\Local\LTspice\lib\cmp\standard.mos

